Circuit: * E:\1. Electrical Engineering\Power Electronics Final\Power-Electronics-Final\Task 1\Draft1.asc

Direct Newton iteration for .op point succeeded.
Heightened Def Con from 1.0003e-015 to 3.00001e-010
Heightened Def Con from 1e-005 to 1e-005
Heightened Def Con from 1e-005 to 1.00003e-005
Heightened Def Con from 2e-005 to 2e-005
Heightened Def Con from 2e-005 to 2e-005
Heightened Def Con from 3e-005 to 3e-005
Heightened Def Con from 3e-005 to 3e-005
Heightened Def Con from 3e-005 to 3e-005
Heightened Def Con from 3e-005 to 3.00003e-005
Heightened Def Con from 4e-005 to 4.00003e-005
Heightened Def Con from 5e-005 to 5.00003e-005
Heightened Def Con from 6e-005 to 6.00003e-005
Heightened Def Con from 0.00013 to 0.00013
Heightened Def Con from 0.00013502 ++++++++++++++++++to 0.00013502
Heightened Def Con from 0.00015 to 0.00015
Heightened Def Con from 0.00016 to 0.00016
Heightened Def Con from 0.00016 to 0.00016
Heightened Def Con from 0.00016 to 0.00016
Heightened Def Con from 0.00016 ++++to 0.00016
Heightened Def Con from 0.00016 ++to 0.00016
Heightened Def Con from 0.00017 to 0.00017
Heightened Def Con from 0.00017 +to 0.00017
Heightened Def Con from 0.00018 to 0.00018
Heightened Def Con from 0.00021 to 0.00021
Heightened Def Con from 0.00022 to 0.00022
Heightened Def Con from 0.00023 to 0.00023
Heightened Def Con from 0.0005 to 0.0005
Heightened Def Con from 0.00051 to 0.00051
Heightened Def Con from 0.00051 to 0.00051
Heightened Def Con from 0.00051 to 0.00051
Heightened Def Con from 0.00051 to 0.00051
Heightened Def Con from 0.00051 ++to 0.00051
Heightened Def Con from 0.00051 to 0.00051
Heightened Def Con from 0.00055 to 0.00055
Heightened Def Con from 0.00058 to 0.00058
Heightened Def Con from 0.00061 to 0.00061
Heightened Def Con from 0.00061 to 0.00061
Heightened Def Con from 0.00062 to 0.00062
Heightened Def Con from 0.00062 to 0.00062
Heightened Def Con from 0.00064 to 0.00064
Heightened Def Con from 0.00064502 to 0.00064502
Heightened Def Con from 0.00066 to 0.00066
Heightened Def Con from 0.00066 to 0.00066
Heightened Def Con from 0.00068 to 0.00068
Heightened Def Con from 0.00068 +++to 0.00068
Heightened Def Con from 0.00068 to 0.00068
Heightened Def Con from 0.00068 to 0.00068
Heightened Def Con from 0.00071 to 0.00071
Heightened Def Con from 0.00072 +to 0.00072
Heightened Def Con from 0.00074 to 0.00074
Heightened Def Con from 0.00075 to 0.00075
Heightened Def Con from 0.00077 to 0.00077
Heightened Def Con from 0.00077502 +++++++++to 0.00077502
Heightened Def Con from 0.00079 to 0.00079
Heightened Def Con from 0.00079 to 0.00079
Heightened Def Con from 0.00079502 to 0.00079502
Heightened Def Con from 0.00081 to 0.00081
Heightened Def Con from 0.00082 to 0.00082
Heightened Def Con from 0.00086502 to 0.00086502
Heightened Def Con from 0.00087502 to 0.00087502
Heightened Def Con from 0.00089 to 0.00089
Heightened Def Con from 0.00091 to 0.00091
Heightened Def Con from 0.00096 to 0.00096
Heightened Def Con from 0.00096 to 0.00096
Heightened Def Con from 0.00096 to 0.00096
Heightened Def Con from 0.00097 to 0.00097
Heightened Def Con from 0.00098 ++to 0.00098
Heightened Def Con from 0.00099 to 0.00099
Heightened Def Con from 0.001 to 0.001

Date: Thu Dec 18 21:07:20 2025
Total elapsed time: 40.786 seconds.

tnom = 27
temp = 27
method = modified trap
totiter = 20552625
traniter = 20552588
tranpoints = 10004988
accept = 10003543
rejected = 1556
matrix size = 19
fillins = 4
solver = Normal
Matrix Compiler1: 1.39 KB object code size  0.3/0.2/[0.1]
Matrix Compiler2: off  [0.1]/0.2/0.2

