Circuit: * E:\1. Electrical Engineering\Power Electronics Final\Power-Electronics-Final\Task 1\Model 2\task1_model2.asc

Direct Newton iteration for .op point succeeded.
Heightened Def Con from 1e-015 to 3.00001e-010
Heightened Def Con from 1e-005 to 1e-005
Heightened Def Con from 2e-005 to 2.00003e-005
Heightened Def Con from 4e-005 +++to 4e-005
Heightened Def Con from 4e-005 to 4e-005
Heightened Def Con from 5e-005 +to 5e-005
Heightened Def Con from 5e-005 to 5.00003e-005
Heightened Def Con from 0.00013 to 0.00013
Heightened Def Con from 0.00015502 to 0.00015502
Heightened Def Con from 0.00018 to 0.00018
Heightened Def Con from 0.00018 to 0.00018
Heightened Def Con from 0.00021 to 0.00021
Heightened Def Con from 0.00024 to 0.00024
Heightened Def Con from 0.0005 to 0.0005
Heightened Def Con from 0.00052502 to 0.00052502
Heightened Def Con from 0.00054 to 0.00054
Heightened Def Con from 0.00054 to 0.00054
Heightened Def Con from 0.00057 to 0.00057
Heightened Def Con from 0.00057 to 0.00057
Heightened Def Con from 0.00057 to 0.00057
Heightened Def Con from 0.00057 to 0.00057
Heightened Def Con from 0.00058502 ++++++++++to 0.00058502
Heightened Def Con from 0.0006 to 0.0006
Heightened Def Con from 0.0006 ++to 0.0006
Heightened Def Con from 0.00060502 to 0.00060502
Heightened Def Con from 0.00062 to 0.00062
Heightened Def Con from 0.00064 +++to 0.00064
Heightened Def Con from 0.00066 to 0.00066
Heightened Def Con from 0.00066 to 0.00066
Heightened Def Con from 0.00066 to 0.00066
Heightened Def Con from 0.00066 to 0.00066
Heightened Def Con from 0.00066502 ++to 0.00066502
Heightened Def Con from 0.00066502 to 0.00066502
Heightened Def Con from 0.00069 to 0.00069
Heightened Def Con from 0.00073 ++to 0.00073
Heightened Def Con from 0.00078 to 0.00078
Heightened Def Con from 0.00078502 to 0.00078502
Heightened Def Con from 0.00078502 to 0.00078502
Heightened Def Con from 0.0008 to 0.0008
Heightened Def Con from 0.00084 to 0.00084
Heightened Def Con from 0.00087 to 0.00087
Heightened Def Con from 0.00087 to 0.00087
Heightened Def Con from 0.00087 +to 0.00087
Heightened Def Con from 0.00087 to 0.00087
Heightened Def Con from 0.00087502 +++++++to 0.00087502
Heightened Def Con from 0.00087502 to 0.00087502
Heightened Def Con from 0.00089 to 0.00089
Heightened Def Con from 0.0009 to 0.0009
Heightened Def Con from 0.00090502 to 0.00090502
Heightened Def Con from 0.00093 to 0.00093
Heightened Def Con from 0.00094 to 0.00094
Heightened Def Con from 0.00095 ++++to 0.00095
Heightened Def Con from 0.00097 to 0.00097
Heightened Def Con from 0.00097 to 0.00097
Heightened Def Con from 0.00099 to 0.00099
Heightened Def Con from 0.00099 to 0.00099

Date: Thu Dec 18 22:25:53 2025
Total elapsed time: 69.237 seconds.

tnom = 27
temp = 27
method = modified trap
totiter = 20882871
traniter = 20882834
tranpoints = 10004584
accept = 10003128
rejected = 1547
matrix size = 29
fillins = 4
solver = Normal
Matrix Compiler1: 1.83 KB object code size  0.4/0.2/[0.1]
Matrix Compiler2: off  [0.2]/0.8/0.2

