Circuit: * E:\1. Electrical Engineering\Power Electronics Final\Power-Electronics-Final\Task 1\Model 2\task1_model2.asc

Direct Newton iteration for .op point succeeded.
.step rg=2
Changing Tseed to 1e-014
Heightened Def Con from 1e-005 ++++++to 1e-005
Heightened Def Con from 1e-005 to 1.00003e-005
Heightened Def Con from 2e-005 ++++++to 2e-005
Heightened Def Con from 2e-005 to 2e-005
Heightened Def Con from 3e-005 to 3e-005
Heightened Def Con from 3e-005 to 3e-005
Heightened Def Con from 4e-005 ++++to 4e-005
Heightened Def Con from 4e-005 to 4e-005
Heightened Def Con from 4e-005 ++++++++++++++to 4e-005
Heightened Def Con from 4e-005 to 4e-005
Heightened Def Con from 4e-005 to 4e-005
Heightened Def Con from 4e-005 to 4e-005
Heightened Def Con from 4e-005 to 4.00003e-005
Heightened Def Con from 5e-005 to 5e-005
Heightened Def Con from 6e-005 to 6.00003e-005
Heightened Def Con from 0.00013502 to 0.00013502
Heightened Def Con from 0.00013502 to 0.00013502
Heightened Def Con from 0.00014502 to 0.00014502
Heightened Def Con from 0.00014502 to 0.00014502
Heightened Def Con from 0.00015502 to 0.00015502
Heightened Def Con from 0.00017502 to 0.00017502
Heightened Def Con from 0.00017502 to 0.00017502
Heightened Def Con from 0.00019502 to 0.00019502
Heightened Def Con from 0.00022502 to 0.00022502
Heightened Def Con from 0.00049502 to 0.00049502
Heightened Def Con from 0.00050502 to 0.00050502
Heightened Def Con from 0.00051502 to 0.00051502
Heightened Def Con from 0.00053502 to 0.00053502
Heightened Def Con from 0.00053502 to 0.00053502
Heightened Def Con from 0.00053502 to 0.00053502
Heightened Def Con from 0.00060502 to 0.00060502
Heightened Def Con from 0.00061502 to 0.00061502
Heightened Def Con from 0.00063502 to 0.00063502
Heightened Def Con from 0.00067502 to 0.00067502
Heightened Def Con from 0.00070502 to 0.00070502
Heightened Def Con from 0.00070502 to 0.00070502
Heightened Def Con from 0.00076502 to 0.00076502
Heightened Def Con from 0.00078502 to 0.00078502
Heightened Def Con from 0.00079502 to 0.00079502
Heightened Def Con from 0.00082502 ++++++++++++++to 0.00082502
Heightened Def Con from 0.00082502 to 0.00082502
Heightened Def Con from 0.00088502 to 0.00088502
Heightened Def Con from 0.00090502 to 0.00090502
Heightened Def Con from 0.00091502 to 0.00091502
Heightened Def Con from 0.00092502 to 0.00092502
Heightened Def Con from 0.00092502 to 0.00092502
Heightened Def Con from 0.00093502 +++++++++++++to 0.00093502
Heightened Def Con from 0.00093502 to 0.00093502
Heightened Def Con from 0.00094502 to 0.00094502
Heightened Def Con from 0.00094502 to 0.00094502
Heightened Def Con from 0.00095502 to 0.00095502
Heightened Def Con from 0.00096502 to 0.00096502
Heightened Def Con from 0.00099502 to 0.00099502
.step rg=14
.step rg=26
.step rg=38
.step rg=50

Date: Thu Dec 18 22:11:52 2025
Total elapsed time: 267.462 seconds.

tnom = 27
temp = 27
method = modified trap
totiter = 20882871
traniter = 20882834
tranpoints = 10004584
accept = 10003128
rejected = 1547
matrix size = 29
fillins = 4
solver = Normal
Matrix Compiler1:     106 opcodes  0.4/[0.2]/0.6
Matrix Compiler2: off  [0.2]/0.3/0.2

