Circuit: * E:\1. Electrical Engineering\Power Electronics Final\Power-Electronics-Final\Task 1\task1_model1.asc

Direct Newton iteration for .op point succeeded.
Changing Tseed to 1e-014

Date: Thu Dec 18 20:09:58 2025
Total elapsed time: 22.188 seconds.

tnom = 27
temp = 27
method = modified trap
totiter = 20593614
traniter = 20593608
tranpoints = 10003443
accept = 10002543
rejected = 899
matrix size = 10
fillins = 0
solver = Normal
Matrix Compiler1: 444 bytes object code size  0.1/0.6/[0.1]
Matrix Compiler2: 700 bytes object code size  0.5/0.1/[0.1]

