Circuit: * E:\1. Electrical Engineering\Power Electronics Final\Power-Electronics-Final\Task 1\task1_model1.asc

Direct Newton iteration for .op point succeeded.
.step rg=2
Heightened Def Con from 0.00055 to 0.00055
Heightened Def Con from 0.00056 to 0.00056
.step rg=14
.step rg=26
.step rg=38
.step rg=50

Date: Thu Dec 18 20:51:01 2025
Total elapsed time: 100.853 seconds.

tnom = 27
temp = 27
method = modified trap
totiter = 22898384
traniter = 22898378
tranpoints = 10292412
accept = 10204893
rejected = 87532
matrix size = 10
fillins = 0
solver = Normal
Matrix Compiler1:      26 opcodes  0.1/0.1/[0.1]
Matrix Compiler2: 700 bytes object code size  0.1/0.1/[0.1]

