Circuit: * E:\1. Electrical Engineering\Power Electronics Final\Power-Electronics-Final\Task 1\task1_model1.asc

Direct Newton iteration for .op point succeeded.
Changing Tseed to 1e-014

Date: Thu Dec 18 19:59:15 2025
Total elapsed time: 20.657 seconds.

tnom = 27
temp = 27
method = modified trap
totiter = 20593614
traniter = 20593608
tranpoints = 10003443
accept = 10002543
rejected = 899
matrix size = 10
fillins = 0
solver = Normal
Matrix Compiler1:      26 opcodes  0.1/[0.1]/0.1
Matrix Compiler2: 700 bytes object code size  0.1/0.1/[0.1]

